Circuit: * C:\users\jonas\Meine Dokumente\Dokumente\jugendprojekt\Platinen\LTSpice-Simulationen\Hauptlicht_EVAL\Hauptlichtsteuerung_einfach.asc

WARNING: Node NC_01 is floating.

WARNING: Less than two connections to node NC_01.  This node is used by C1.
Direct Newton iteration failed to find .op point.  (Use ".option noopiter" to skip.)
Starting Gmin stepping
Gmin = 10
Gmin = 1.07374
Gmin = 0.115292
Gmin = 0.0123794
Gmin = 0.00132923
Gmin = 0.000142725
Gmin = 1.5325e-005
Gmin = 1.6455e-006
Gmin = 1.76685e-007
Gmin = 1.89714e-008
Gmin = 2.03704e-009
Gmin = 2.18725e-010
Gmin = 2.34854e-011
Gmin = 2.52173e-012
Gmin = 2.70769e-013
Gmin = 0
Gmin stepping succeeded in finding the operating point.


Date: Fri Jul 20 11:27:11 2018
Total elapsed time: 0.633 seconds.

tnom = 27
temp = 27
method = modified trap
totiter = 67485
traniter = 67031
tranpoints = 28114
accept = 21780
rejected = 6334
matrix size = 53
fillins = 16
solver = Normal
Matrix Compiler1: 3.94 KB object code size  1.9/0.9/[0.6]
Matrix Compiler2: 4.64 KB object code size  1.1/1.8/[1.1]

