Circuit: * C:\users\jonas\Meine Dokumente\LTspiceXVII\Hauptlicht_EVAL\Hauptlichtsteuerung_einfach.asc

Direct Newton iteration for .op point succeeded.

Date: Sat Nov 11 20:04:55 2017
Total elapsed time: 11.802 seconds.

tnom = 27
temp = 27
method = modified trap
totiter = 1684024
traniter = 1683997
tranpoints = 453420
accept = 348039
rejected = 105381
matrix size = 45
fillins = 16
solver = Normal
Matrix Compiler1: 3.10 KB object code size  1.5/0.8/[0.5]
Matrix Compiler2: 3.82 KB object code size  0.7/1.0/[0.6]

