Circuit: * C:\users\jonas\Meine Dokumente\Dokumente\jugendprojekt\Platinen\LTSpice-Simulationen\Hauptlicht_EVAL\Hauptlichtsteuerung_einfach.asc

Direct Newton iteration failed to find .op point.  (Use ".option noopiter" to skip.)
Starting Gmin stepping
Gmin = 10
Gmin = 1.07374
Gmin = 0.115292
Gmin = 0.0123794
Gmin = 0.00132923
Gmin = 0.000142725
Gmin = 1.5325e-005
Gmin = 1.6455e-006
Gmin = 1.76685e-007
Gmin = 1.89714e-008
Gmin = 2.03704e-009
Gmin = 2.18725e-010
Gmin = 2.34854e-011
Gmin = 2.52173e-012
Gmin = 2.70769e-013
Gmin = 0
Gmin stepping succeeded in finding the operating point.


Date: Mon May 28 18:14:36 2018
Total elapsed time: 1.569 seconds.

tnom = 27
temp = 27
method = modified trap
totiter = 137282
traniter = 136839
tranpoints = 48689
accept = 36919
rejected = 11770
matrix size = 51
fillins = 15
solver = Normal
Matrix Compiler1: 3.92 KB object code size  2.1/1.3/[0.9]
Matrix Compiler2: off  [1.2]/1.3/1.3

