Circuit: * C:\users\jonas\Meine Dokumente\LTspiceXVII\Hauptlicht_EVAL\Hauptlichtsteuerung.asc

Direct Newton iteration failed to find .op point.  (Use ".option noopiter" to skip.)
Starting Gmin stepping
Gmin = 10
Gmin = 1.07374
Gmin = 0.115292
Gmin = 0.0123794
Gmin = 0.00132923
Gmin = 0.000142725
Gmin = 1.5325e-005
Gmin = 1.6455e-006
vernier = 0.5
vernier = 0.666667
Gmin = 5.00922e-007
vernier = 0.888888
Gmin = 8.49738e-008
vernier = 1
Gmin = 9.33136e-009
Gmin = 1.00195e-009
Gmin = 1.07583e-010
Gmin = 1.15517e-011
Gmin = 1.24035e-012
Gmin = 1.33182e-013
Gmin = 0
Gmin stepping succeeded in finding the operating point.

Changing Tseed to 1.4e-009
Heightened Def Con from 1.51395e-009 to 2.63895e-009
Heightened Def Con from 5.3248e-009 to 7.4498e-009
Heightened Def Con from 8.77092e-009 to 1.17709e-008
Heightened Def Con from 1.20158e-008 to 1.21564e-008
Heightened Def Con from 1.24128e-008 to 1.41e-008
Heightened Def Con from 1.44594e-008 to 1.55844e-008
Heightened Def Con from 1.8011e-008 +to 1.83879e-008
Heightened Def Con from 1.976e-008 to 2.1885e-008
Heightened Def Con from 2.3717e-008 to 2.47326e-008
Heightened Def Con from 2.5188e-008 to 2.5438e-008
Heightened Def Con from 2.59515e-008 to 2.80765e-008
Heightened Def Con from 2.85142e-008 to 2.96392e-008
Heightened Def Con from 2.97077e-008 to 3.07234e-008
Heightened Def Con from 3.15741e-008 to 3.18241e-008
Heightened Def Con from 3.28052e-008 to 3.29458e-008
Heightened Def Con from 3.31149e-008 to 3.32401e-008
Heightened Def Con from 3.32749e-008 to 3.62749e-008
Heightened Def Con from 3.63524e-008 to 3.83527e-008
Heightened Def Con from 3.85678e-008 to 3.86928e-008
Heightened Def Con from 4.12551e-008 to 4.22707e-008
Heightened Def Con from 4.23602e-008 to 4.26102e-008
Heightened Def Con from 4.28817e-008 to 4.58817e-008
Heightened Def Con from 4.59934e-008 to 4.81184e-008
Heightened Def Con from 4.81467e-008 to 5.11467e-008
Heightened Def Con from 6.01691e-008 to 6.12941e-008
Heightened Def Con from 6.30722e-008 to 6.33379e-008
Heightened Def Con from 6.33381e-008 to 6.54631e-008
Heightened Def Con from 6.73079e-008 to 6.73254e-008
Heightened Def Con from 6.7326e-008 to 6.74529e-008
Heightened Def Con from 6.7486e-008 to 6.74882e-008
Heightened Def Con from 6.74887e-008 +to 6.777e-008
Heightened Def Con from 6.77706e-008 to 7.07706e-008
Heightened Def Con from 7.08044e-008 to 7.09296e-008
Heightened Def Con from 7.09303e-008 to 7.30553e-008
Heightened Def Con from 7.64828e-008 to 7.94828e-008
Heightened Def Con from 8.17174e-008 to 8.3733e-008
Heightened Def Con from 8.37332e-008 to 8.37508e-008
Heightened Def Con from 8.37512e-008 to 8.47669e-008
Heightened Def Con from 8.47805e-008 to 8.77805e-008
Heightened Def Con from 8.89018e-008 to 9.00268e-008
Heightened Def Con from 9.07075e-008 to 9.17095e-008
Heightened Def Con from 9.171e-008 to 9.27102e-008
Heightened Def Con from 9.27103e-008 to 9.47259e-008
Heightened Def Con from 9.47584e-008 to 9.50084e-008
Heightened Def Con from 9.72764e-008 to 9.72921e-008
Heightened Def Con from 9.72921e-008 to 9.7296e-008
Heightened Def Con from 9.73287e-008 +to 9.74693e-008
Heightened Def Con from 9.76853e-008 +to 9.97029e-008
Heightened Def Con from 9.97163e-008 to 1.02716e-007
Heightened Def Con from 1.02971e-007 to 1.05971e-007
Heightened Def Con from 1.06357e-007 to 1.06607e-007
Heightened Def Con from 1.06654e-007 to 1.06658e-007
Heightened Def Con from 1.06658e-007 to 1.09658e-007
Heightened Def Con from 1.1287e-007 to 1.1487e-007
Heightened Def Con from 1.15021e-007 to 1.17021e-007
Heightened Def Con from 1.20268e-007 to 1.20518e-007
Heightened Def Con from 0.000224901 +to 0.000224901
Heightened Def Con from 0.000240681 to 0.000240681
Heightened Def Con from 0.000444229 ++to 0.000444229
Heightened Def Con from 0.000444229 to 0.000444229
Heightened Def Con from 0.000475298 to 0.000475298
Heightened Def Con from 0.000475298 to 0.000475298
Heightened Def Con from 0.000475298 to 0.000475298
Heightened Def Con from 0.000476193 to 0.000476193
Heightened Def Con from 0.000476193 to 0.000476193
Heightened Def Con from 0.000476193 +++++to 0.000476193
Heightened Def Con from 0.00066293 +++to 0.00066293
Heightened Def Con from 0.000705133 to 0.000705133
Heightened Def Con from 0.000705133 to 0.000705133
Heightened Def Con from 0.000705133 to 0.000705133
Heightened Def Con from 0.000705133 ++++++++to 0.000705133
Heightened Def Con from 0.000705133 to 0.000705133
Heightened Def Con from 0.000705135 to 0.000705135
Heightened Def Con from 0.000705135 to 0.000705135
Heightened Def Con from 0.000705135 to 0.000705135
Heightened Def Con from 0.000706419 to 0.000706419
Heightened Def Con from 0.000706419 to 0.000706419
Heightened Def Con from 0.000932595 ++to 0.000932595
Heightened Def Con from 0.000932595 ++++++to 0.000932595
Heightened Def Con from 0.000932595 to 0.000932595
Heightened Def Con from 0.000932597 to 0.000932597
Heightened Def Con from 0.00109864 to 0.00109864
Heightened Def Con from 0.00109864 ++to 0.00109864
Heightened Def Con from 0.00115594 to 0.00115594
Heightened Def Con from 0.00115594 +++++to 0.00115594
Heightened Def Con from 0.00115594 to 0.00115594
Heightened Def Con from 0.00115594 ++++++++++to 0.00115594
Heightened Def Con from 0.00115594 +++++++++++to 0.00115594
Heightened Def Con from 0.00115594 +++++++++++to 0.00115594
Heightened Def Con from 0.00115778 to 0.00115778
Heightened Def Con from 0.00153469 to 0.00153469
Heightened Def Con from 0.00160103 to 0.00160103
Heightened Def Con from 0.00160103 to 0.00160103
Heightened Def Con from 0.00160103 +++++to 0.00160103
Heightened Def Con from 0.00160103 to 0.00160103
Heightened Def Con from 0.00182177 to 0.00182177
Heightened Def Con from 0.00182177 to 0.00182177
Heightened Def Con from 0.00182177 to 0.00182177
Heightened Def Con from 0.00182177 to 0.00182177
Heightened Def Con from 0.00182177 to 0.00182177
Heightened Def Con from 0.00197157 to 0.00197157
Heightened Def Con from 0.00197157 to 0.00197157
Heightened Def Con from 0.00203969 +++++++++to 0.00203969
Heightened Def Con from 0.00203969 ++++++to 0.00203969
Heightened Def Con from 0.00203969 ++++++++++to 0.00203969
Heightened Def Con from 0.00203969 +++++++++++to 0.00203969
Heightened Def Con from 0.00203969 +++++++++++to 0.00203969
Heightened Def Con from 0.00225656 to 0.00225656
Heightened Def Con from 0.00225656 to 0.00225656
Heightened Def Con from 0.00225656 +to 0.00225656
Heightened Def Con from 0.00225656 to 0.00225656
Heightened Def Con from 0.00225656 to 0.00225656
Heightened Def Con from 0.00225656 to 0.00225656
Heightened Def Con from 0.00225656 to 0.00225656
Heightened Def Con from 0.00225656 to 0.00225656
Heightened Def Con from 0.00225656 to 0.00225656
Heightened Def Con from 0.00225656 ++++++++to 0.00225656
Heightened Def Con from 0.00225656 +++++to 0.00225656
Heightened Def Con from 0.00225656 +++++++to 0.00225656
Heightened Def Con from 0.00225899 +to 0.00225899
Heightened Def Con from 0.00247851 to 0.00247851
Heightened Def Con from 0.00247851 to 0.00247851
Heightened Def Con from 0.00247851 +to 0.00247851
Heightened Def Con from 0.00262531 +to 0.00262531
Heightened Def Con from 0.00262531 +++++++++++++++++++to 0.00262531
Heightened Def Con from 0.00269405 to 0.00269405
Heightened Def Con from 0.00269653 +to 0.00269653
Heightened Def Con from 0.00269653 +to 0.00269653
Heightened Def Con from 0.00269653 +++to 0.00269653
Heightened Def Con from 0.00284409 to 0.00284409
Heightened Def Con from 0.00284409 to 0.00284409
Heightened Def Con from 0.00291214 to 0.00291214
Heightened Def Con from 0.00312583 to 0.00312583
Heightened Def Con from 0.0031285 to 0.0031285
Heightened Def Con from 0.0031285 to 0.0031285
Heightened Def Con from 0.0031285 +++to 0.0031285
Heightened Def Con from 0.0031285 to 0.0031285
Heightened Def Con from 0.00334262 ++to 0.00334262
Heightened Def Con from 0.00334262 to 0.00334262
Heightened Def Con from 0.00334262 ++++++++to 0.00334262
Heightened Def Con from 0.00334262 to 0.00334262
Heightened Def Con from 0.00356324 to 0.00356324
Heightened Def Con from 0.00371451 +to 0.00371451
Heightened Def Con from 0.00371451 +++++++++++++++++++to 0.00371451
Heightened Def Con from 0.00371451 to 0.00371451
Heightened Def Con from 0.00402506 to 0.00402506
Heightened Def Con from 0.00402506 ++++++to 0.00402506
Heightened Def Con from 0.00402506 to 0.00402506
Heightened Def Con from 0.00402506 ++to 0.00402506
Heightened Def Con from 0.00402506 +to 0.00402506
Heightened Def Con from 0.00402506 +to 0.00402506
Heightened Def Con from 0.00402506 +to 0.00402506
Heightened Def Con from 0.00402506 to 0.00402506
Heightened Def Con from 0.00402506 to 0.00402506
Heightened Def Con from 0.00402506 +to 0.00402506
Heightened Def Con from 0.00402506 to 0.00402506
Heightened Def Con from 0.00402506 to 0.00402506
Heightened Def Con from 0.00402792 to 0.00402792
Heightened Def Con from 0.00424787 +to 0.00424787
Heightened Def Con from 0.00436991 to 0.00436991
Heightened Def Con from 0.00436991 +to 0.00436991
Heightened Def Con from 0.00436991 to 0.00436991
Heightened Def Con from 0.00446608 to 0.00446608
Heightened Def Con from 0.00468589 to 0.00468589
Heightened Def Con from 0.00468589 to 0.00468589
Heightened Def Con from 0.00480543 ++++++++++to 0.00480543
Heightened Def Con from 0.00480545 to 0.00480545

Date: Sat Nov 11 10:23:10 2017
Total elapsed time: 67852.211 seconds.

tnom = 27
temp = 27
method = modified trap
totiter = 9184571
traniter = 9183364
tranpoints = 2173115
accept = 1625987
rejected = 547521
matrix size = 232
fillins = 527
solver = Normal
Matrix Compiler1: 38.61 KB object code size  16.2/8.2/[5.2]
Matrix Compiler2: 27.83 KB object code size  6.8/8.4/[4.7]

