Circuit: * C:\users\jonas\Meine Dokumente\Dokumente\jugendprojekt\Platinen\LTSpice-Simulationen\Hauptlicht_EVAL\Hauptlichtsteuerung_einfach.asc

Direct Newton iteration for .op point succeeded.
Heightened Def Con from 9.77189e-012 to 3.00977e-009

Date: Sun May 27 22:16:51 2018
Total elapsed time: 1.081 seconds.

tnom = 27
temp = 27
method = modified trap
totiter = 137251
traniter = 137211
tranpoints = 50129
accept = 38092
rejected = 12038
matrix size = 41
fillins = 9
solver = Normal
Matrix Compiler1: 3.27 KB object code size  2.0/1.2/[0.9]
Matrix Compiler2: off  [1.1]/1.8/1.2

